<routes>
            <vType accel="1.0" decel="4.5" id="standard_car" length="5.0" minGap="2.5" maxSpeed="25" sigma="0.5" />

            <route id="W_N" edges="WtoC CtoN"/>
            <route id="W_E" edges="WtoC CtoE"/>
            <route id="W_S" edges="WtoC CtoS"/>
            <route id="N_W" edges="NtoC CtoW"/>
            <route id="N_E" edges="NtoC CtoE"/>
            <route id="N_S" edges="NtoC CtoS"/>
            <route id="E_W" edges="EtoC CtoW"/>
            <route id="E_N" edges="EtoC CtoN"/>
            <route id="E_S" edges="EtoC CtoS"/>
            <route id="S_W" edges="StoC CtoW"/>
            <route id="S_N" edges="StoC CtoN"/>
            <route id="S_E" edges="StoC CtoE"/>
    <vehicle id="N_W_0" type="standard_car" route="N_W" depart="0.0" departLane="random" departSpeed="10" />
    <vehicle id="E_W_1" type="standard_car" route="E_W" depart="265.0" departLane="random" departSpeed="10" />
    <vehicle id="N_E_2" type="standard_car" route="N_E" depart="313.0" departLane="random" departSpeed="10" />
    <vehicle id="N_S_3" type="standard_car" route="N_S" depart="470.0" departLane="random" departSpeed="10" />
    <vehicle id="W_E_4" type="standard_car" route="W_E" depart="482.0" departLane="random" departSpeed="10" />
    <vehicle id="N_W_5" type="standard_car" route="N_W" depart="506.0" departLane="random" departSpeed="10" />
    <vehicle id="W_S_6" type="standard_car" route="W_S" depart="579.0" departLane="random" departSpeed="10" />
    <vehicle id="W_E_7" type="standard_car" route="W_E" depart="579.0" departLane="random" departSpeed="10" />
    <vehicle id="N_S_8" type="standard_car" route="N_S" depart="591.0" departLane="random" departSpeed="10" />
    <vehicle id="S_N_9" type="standard_car" route="S_N" depart="603.0" departLane="random" departSpeed="10" />
    <vehicle id="N_S_10" type="standard_car" route="N_S" depart="651.0" departLane="random" departSpeed="10" />
    <vehicle id="S_N_11" type="standard_car" route="S_N" depart="699.0" departLane="random" departSpeed="10" />
    <vehicle id="E_W_12" type="standard_car" route="E_W" depart="711.0" departLane="random" departSpeed="10" />
    <vehicle id="N_S_13" type="standard_car" route="N_S" depart="771.0" departLane="random" departSpeed="10" />
    <vehicle id="E_W_14" type="standard_car" route="E_W" depart="844.0" departLane="random" departSpeed="10" />
    <vehicle id="W_N_15" type="standard_car" route="W_N" depart="856.0" departLane="random" departSpeed="10" />
    <vehicle id="S_N_16" type="standard_car" route="S_N" depart="880.0" departLane="random" departSpeed="10" />
    <vehicle id="W_N_17" type="standard_car" route="W_N" depart="892.0" departLane="random" departSpeed="10" />
    <vehicle id="N_S_18" type="standard_car" route="N_S" depart="892.0" departLane="random" departSpeed="10" />
    <vehicle id="W_E_19" type="standard_car" route="W_E" depart="904.0" departLane="random" departSpeed="10" />
    <vehicle id="W_N_20" type="standard_car" route="W_N" depart="976.0" departLane="random" departSpeed="10" />
    <vehicle id="S_E_21" type="standard_car" route="S_E" depart="988.0" departLane="random" departSpeed="10" />
    <vehicle id="S_N_22" type="standard_car" route="S_N" depart="1012.0" departLane="random" departSpeed="10" />
    <vehicle id="W_E_23" type="standard_car" route="W_E" depart="1025.0" departLane="random" departSpeed="10" />
    <vehicle id="E_W_24" type="standard_car" route="E_W" depart="1025.0" departLane="random" departSpeed="10" />
    <vehicle id="N_S_25" type="standard_car" route="N_S" depart="1037.0" departLane="random" departSpeed="10" />
    <vehicle id="N_S_26" type="standard_car" route="N_S" depart="1037.0" departLane="random" departSpeed="10" />
    <vehicle id="S_E_27" type="standard_car" route="S_E" depart="1049.0" departLane="random" departSpeed="10" />
    <vehicle id="W_N_28" type="standard_car" route="W_N" depart="1049.0" departLane="random" departSpeed="10" />
    <vehicle id="W_E_29" type="standard_car" route="W_E" depart="1061.0" departLane="random" departSpeed="10" />
    <vehicle id="W_E_30" type="standard_car" route="W_E" depart="1061.0" departLane="random" departSpeed="10" />
    <vehicle id="S_N_31" type="standard_car" route="S_N" depart="1109.0" departLane="random" departSpeed="10" />
    <vehicle id="N_E_32" type="standard_car" route="N_E" depart="1133.0" departLane="random" departSpeed="10" />
    <vehicle id="W_N_33" type="standard_car" route="W_N" depart="1133.0" departLane="random" departSpeed="10" />
    <vehicle id="N_S_34" type="standard_car" route="N_S" depart="1145.0" departLane="random" departSpeed="10" />
    <vehicle id="N_S_35" type="standard_car" route="N_S" depart="1145.0" departLane="random" departSpeed="10" />
    <vehicle id="N_E_36" type="standard_car" route="N_E" depart="1157.0" departLane="random" departSpeed="10" />
    <vehicle id="N_S_37" type="standard_car" route="N_S" depart="1157.0" departLane="random" departSpeed="10" />
    <vehicle id="E_S_38" type="standard_car" route="E_S" depart="1157.0" departLane="random" departSpeed="10" />
    <vehicle id="N_S_39" type="standard_car" route="N_S" depart="1169.0" departLane="random" departSpeed="10" />
    <vehicle id="W_E_40" type="standard_car" route="W_E" depart="1181.0" departLane="random" departSpeed="10" />
    <vehicle id="E_W_41" type="standard_car" route="E_W" depart="1181.0" departLane="random" departSpeed="10" />
    <vehicle id="S_N_42" type="standard_car" route="S_N" depart="1181.0" departLane="random" departSpeed="10" />
    <vehicle id="E_W_43" type="standard_car" route="E_W" depart="1193.0" departLane="random" departSpeed="10" />
    <vehicle id="S_N_44" type="standard_car" route="S_N" depart="1205.0" departLane="random" departSpeed="10" />
    <vehicle id="N_W_45" type="standard_car" route="N_W" depart="1217.0" departLane="random" departSpeed="10" />
    <vehicle id="S_N_46" type="standard_car" route="S_N" depart="1229.0" departLane="random" departSpeed="10" />
    <vehicle id="W_N_47" type="standard_car" route="W_N" depart="1242.0" departLane="random" departSpeed="10" />
    <vehicle id="N_S_48" type="standard_car" route="N_S" depart="1266.0" departLane="random" departSpeed="10" />
    <vehicle id="S_N_49" type="standard_car" route="S_N" depart="1278.0" departLane="random" departSpeed="10" />
    <vehicle id="S_N_50" type="standard_car" route="S_N" depart="1290.0" departLane="random" departSpeed="10" />
    <vehicle id="N_E_51" type="standard_car" route="N_E" depart="1290.0" departLane="random" departSpeed="10" />
    <vehicle id="S_N_52" type="standard_car" route="S_N" depart="1302.0" departLane="random" departSpeed="10" />
    <vehicle id="N_S_53" type="standard_car" route="N_S" depart="1314.0" departLane="random" departSpeed="10" />
    <vehicle id="N_S_54" type="standard_car" route="N_S" depart="1314.0" departLane="random" departSpeed="10" />
    <vehicle id="N_S_55" type="standard_car" route="N_S" depart="1326.0" departLane="random" departSpeed="10" />
    <vehicle id="S_N_56" type="standard_car" route="S_N" depart="1326.0" departLane="random" departSpeed="10" />
    <vehicle id="N_S_57" type="standard_car" route="N_S" depart="1338.0" departLane="random" departSpeed="10" />
    <vehicle id="E_W_58" type="standard_car" route="E_W" depart="1350.0" departLane="random" departSpeed="10" />
    <vehicle id="N_S_59" type="standard_car" route="N_S" depart="1350.0" departLane="random" departSpeed="10" />
    <vehicle id="S_E_60" type="standard_car" route="S_E" depart="1350.0" departLane="random" departSpeed="10" />
    <vehicle id="S_N_61" type="standard_car" route="S_N" depart="1350.0" departLane="random" departSpeed="10" />
    <vehicle id="S_W_62" type="standard_car" route="S_W" depart="1362.0" departLane="random" departSpeed="10" />
    <vehicle id="S_N_63" type="standard_car" route="S_N" depart="1362.0" departLane="random" departSpeed="10" />
    <vehicle id="N_S_64" type="standard_car" route="N_S" depart="1362.0" departLane="random" departSpeed="10" />
    <vehicle id="E_W_65" type="standard_car" route="E_W" depart="1362.0" departLane="random" departSpeed="10" />
    <vehicle id="S_N_66" type="standard_car" route="S_N" depart="1362.0" departLane="random" departSpeed="10" />
    <vehicle id="E_W_67" type="standard_car" route="E_W" depart="1386.0" departLane="random" departSpeed="10" />
    <vehicle id="W_N_68" type="standard_car" route="W_N" depart="1386.0" departLane="random" departSpeed="10" />
    <vehicle id="W_E_69" type="standard_car" route="W_E" depart="1398.0" departLane="random" departSpeed="10" />
    <vehicle id="S_E_70" type="standard_car" route="S_E" depart="1398.0" departLane="random" departSpeed="10" />
    <vehicle id="N_S_71" type="standard_car" route="N_S" depart="1398.0" departLane="random" departSpeed="10" />
    <vehicle id="E_W_72" type="standard_car" route="E_W" depart="1398.0" departLane="random" departSpeed="10" />
    <vehicle id="E_W_73" type="standard_car" route="E_W" depart="1422.0" departLane="random" departSpeed="10" />
    <vehicle id="W_E_74" type="standard_car" route="W_E" depart="1422.0" departLane="random" departSpeed="10" />
    <vehicle id="W_E_75" type="standard_car" route="W_E" depart="1422.0" departLane="random" departSpeed="10" />
    <vehicle id="W_E_76" type="standard_car" route="W_E" depart="1434.0" departLane="random" departSpeed="10" />
    <vehicle id="E_W_77" type="standard_car" route="E_W" depart="1446.0" departLane="random" departSpeed="10" />
    <vehicle id="N_E_78" type="standard_car" route="N_E" depart="1446.0" departLane="random" departSpeed="10" />
    <vehicle id="N_S_79" type="standard_car" route="N_S" depart="1446.0" departLane="random" departSpeed="10" />
    <vehicle id="S_N_80" type="standard_car" route="S_N" depart="1471.0" departLane="random" departSpeed="10" />
    <vehicle id="S_W_81" type="standard_car" route="S_W" depart="1471.0" departLane="random" departSpeed="10" />
    <vehicle id="S_N_82" type="standard_car" route="S_N" depart="1483.0" departLane="random" departSpeed="10" />
    <vehicle id="N_W_83" type="standard_car" route="N_W" depart="1483.0" departLane="random" departSpeed="10" />
    <vehicle id="S_N_84" type="standard_car" route="S_N" depart="1495.0" departLane="random" departSpeed="10" />
    <vehicle id="S_W_85" type="standard_car" route="S_W" depart="1495.0" departLane="random" departSpeed="10" />
    <vehicle id="N_E_86" type="standard_car" route="N_E" depart="1519.0" departLane="random" departSpeed="10" />
    <vehicle id="W_E_87" type="standard_car" route="W_E" depart="1519.0" departLane="random" departSpeed="10" />
    <vehicle id="N_S_88" type="standard_car" route="N_S" depart="1531.0" departLane="random" departSpeed="10" />
    <vehicle id="S_N_89" type="standard_car" route="S_N" depart="1531.0" departLane="random" departSpeed="10" />
    <vehicle id="N_S_90" type="standard_car" route="N_S" depart="1531.0" departLane="random" departSpeed="10" />
    <vehicle id="E_S_91" type="standard_car" route="E_S" depart="1531.0" departLane="random" departSpeed="10" />
    <vehicle id="W_S_92" type="standard_car" route="W_S" depart="1543.0" departLane="random" departSpeed="10" />
    <vehicle id="S_N_93" type="standard_car" route="S_N" depart="1555.0" departLane="random" departSpeed="10" />
    <vehicle id="W_S_94" type="standard_car" route="W_S" depart="1567.0" departLane="random" departSpeed="10" />
    <vehicle id="S_N_95" type="standard_car" route="S_N" depart="1567.0" departLane="random" departSpeed="10" />
    <vehicle id="N_S_96" type="standard_car" route="N_S" depart="1579.0" departLane="random" departSpeed="10" />
    <vehicle id="W_S_97" type="standard_car" route="W_S" depart="1579.0" departLane="random" departSpeed="10" />
    <vehicle id="N_E_98" type="standard_car" route="N_E" depart="1591.0" departLane="random" departSpeed="10" />
    <vehicle id="N_S_99" type="standard_car" route="N_S" depart="1591.0" departLane="random" departSpeed="10" />
    <vehicle id="W_E_100" type="standard_car" route="W_E" depart="1603.0" departLane="random" departSpeed="10" />
    <vehicle id="N_S_101" type="standard_car" route="N_S" depart="1603.0" departLane="random" departSpeed="10" />
    <vehicle id="W_E_102" type="standard_car" route="W_E" depart="1603.0" departLane="random" departSpeed="10" />
    <vehicle id="S_N_103" type="standard_car" route="S_N" depart="1615.0" departLane="random" departSpeed="10" />
    <vehicle id="W_N_104" type="standard_car" route="W_N" depart="1615.0" departLane="random" departSpeed="10" />
    <vehicle id="E_N_105" type="standard_car" route="E_N" depart="1627.0" departLane="random" departSpeed="10" />
    <vehicle id="S_E_106" type="standard_car" route="S_E" depart="1651.0" departLane="random" departSpeed="10" />
    <vehicle id="N_S_107" type="standard_car" route="N_S" depart="1663.0" departLane="random" departSpeed="10" />
    <vehicle id="E_W_108" type="standard_car" route="E_W" depart="1675.0" departLane="random" departSpeed="10" />
    <vehicle id="N_S_109" type="standard_car" route="N_S" depart="1675.0" departLane="random" departSpeed="10" />
    <vehicle id="N_W_110" type="standard_car" route="N_W" depart="1675.0" departLane="random" departSpeed="10" />
    <vehicle id="E_W_111" type="standard_car" route="E_W" depart="1675.0" departLane="random" departSpeed="10" />
    <vehicle id="S_N_112" type="standard_car" route="S_N" depart="1675.0" departLane="random" departSpeed="10" />
    <vehicle id="W_E_113" type="standard_car" route="W_E" depart="1688.0" departLane="random" departSpeed="10" />
    <vehicle id="N_S_114" type="standard_car" route="N_S" depart="1688.0" departLane="random" departSpeed="10" />
    <vehicle id="N_E_115" type="standard_car" route="N_E" depart="1688.0" departLane="random" departSpeed="10" />
    <vehicle id="N_S_116" type="standard_car" route="N_S" depart="1700.0" departLane="random" departSpeed="10" />
    <vehicle id="W_E_117" type="standard_car" route="W_E" depart="1700.0" departLane="random" departSpeed="10" />
    <vehicle id="E_W_118" type="standard_car" route="E_W" depart="1700.0" departLane="random" departSpeed="10" />
    <vehicle id="N_S_119" type="standard_car" route="N_S" depart="1700.0" departLane="random" departSpeed="10" />
    <vehicle id="W_E_120" type="standard_car" route="W_E" depart="1700.0" departLane="random" departSpeed="10" />
    <vehicle id="N_S_121" type="standard_car" route="N_S" depart="1724.0" departLane="random" departSpeed="10" />
    <vehicle id="N_W_122" type="standard_car" route="N_W" depart="1724.0" departLane="random" departSpeed="10" />
    <vehicle id="W_S_123" type="standard_car" route="W_S" depart="1724.0" departLane="random" departSpeed="10" />
    <vehicle id="N_S_124" type="standard_car" route="N_S" depart="1736.0" departLane="random" departSpeed="10" />
    <vehicle id="W_E_125" type="standard_car" route="W_E" depart="1736.0" departLane="random" departSpeed="10" />
    <vehicle id="E_W_126" type="standard_car" route="E_W" depart="1736.0" departLane="random" departSpeed="10" />
    <vehicle id="E_W_127" type="standard_car" route="E_W" depart="1736.0" departLane="random" departSpeed="10" />
    <vehicle id="E_W_128" type="standard_car" route="E_W" depart="1748.0" departLane="random" departSpeed="10" />
    <vehicle id="S_N_129" type="standard_car" route="S_N" depart="1760.0" departLane="random" departSpeed="10" />
    <vehicle id="N_S_130" type="standard_car" route="N_S" depart="1760.0" departLane="random" departSpeed="10" />
    <vehicle id="N_S_131" type="standard_car" route="N_S" depart="1772.0" departLane="random" departSpeed="10" />
    <vehicle id="W_E_132" type="standard_car" route="W_E" depart="1772.0" departLane="random" departSpeed="10" />
    <vehicle id="W_E_133" type="standard_car" route="W_E" depart="1772.0" departLane="random" departSpeed="10" />
    <vehicle id="W_E_134" type="standard_car" route="W_E" depart="1784.0" departLane="random" departSpeed="10" />
    <vehicle id="W_S_135" type="standard_car" route="W_S" depart="1784.0" departLane="random" departSpeed="10" />
    <vehicle id="E_W_136" type="standard_car" route="E_W" depart="1784.0" departLane="random" departSpeed="10" />
    <vehicle id="S_N_137" type="standard_car" route="S_N" depart="1796.0" departLane="random" departSpeed="10" />
    <vehicle id="E_W_138" type="standard_car" route="E_W" depart="1796.0" departLane="random" departSpeed="10" />
    <vehicle id="N_S_139" type="standard_car" route="N_S" depart="1796.0" departLane="random" departSpeed="10" />
    <vehicle id="W_E_140" type="standard_car" route="W_E" depart="1808.0" departLane="random" departSpeed="10" />
    <vehicle id="S_N_141" type="standard_car" route="S_N" depart="1808.0" departLane="random" departSpeed="10" />
    <vehicle id="N_S_142" type="standard_car" route="N_S" depart="1808.0" departLane="random" departSpeed="10" />
    <vehicle id="N_S_143" type="standard_car" route="N_S" depart="1808.0" departLane="random" departSpeed="10" />
    <vehicle id="W_E_144" type="standard_car" route="W_E" depart="1808.0" departLane="random" departSpeed="10" />
    <vehicle id="W_E_145" type="standard_car" route="W_E" depart="1808.0" departLane="random" departSpeed="10" />
    <vehicle id="W_E_146" type="standard_car" route="W_E" depart="1808.0" departLane="random" departSpeed="10" />
    <vehicle id="N_S_147" type="standard_car" route="N_S" depart="1820.0" departLane="random" departSpeed="10" />
    <vehicle id="N_W_148" type="standard_car" route="N_W" depart="1820.0" departLane="random" departSpeed="10" />
    <vehicle id="E_W_149" type="standard_car" route="E_W" depart="1820.0" departLane="random" departSpeed="10" />
    <vehicle id="S_N_150" type="standard_car" route="S_N" depart="1820.0" departLane="random" departSpeed="10" />
    <vehicle id="E_W_151" type="standard_car" route="E_W" depart="1820.0" departLane="random" departSpeed="10" />
    <vehicle id="S_N_152" type="standard_car" route="S_N" depart="1820.0" departLane="random" departSpeed="10" />
    <vehicle id="E_W_153" type="standard_car" route="E_W" depart="1832.0" departLane="random" departSpeed="10" />
    <vehicle id="S_W_154" type="standard_car" route="S_W" depart="1844.0" departLane="random" departSpeed="10" />
    <vehicle id="W_E_155" type="standard_car" route="W_E" depart="1856.0" departLane="random" departSpeed="10" />
    <vehicle id="S_W_156" type="standard_car" route="S_W" depart="1856.0" departLane="random" departSpeed="10" />
    <vehicle id="W_N_157" type="standard_car" route="W_N" depart="1868.0" departLane="random" departSpeed="10" />
    <vehicle id="E_W_158" type="standard_car" route="E_W" depart="1868.0" departLane="random" departSpeed="10" />
    <vehicle id="S_E_159" type="standard_car" route="S_E" depart="1880.0" departLane="random" departSpeed="10" />
    <vehicle id="E_S_160" type="standard_car" route="E_S" depart="1880.0" departLane="random" departSpeed="10" />
    <vehicle id="W_E_161" type="standard_car" route="W_E" depart="1880.0" departLane="random" departSpeed="10" />
    <vehicle id="S_N_162" type="standard_car" route="S_N" depart="1880.0" departLane="random" departSpeed="10" />
    <vehicle id="E_W_163" type="standard_car" route="E_W" depart="1892.0" departLane="random" departSpeed="10" />
    <vehicle id="W_E_164" type="standard_car" route="W_E" depart="1892.0" departLane="random" departSpeed="10" />
    <vehicle id="S_N_165" type="standard_car" route="S_N" depart="1892.0" departLane="random" departSpeed="10" />
    <vehicle id="S_E_166" type="standard_car" route="S_E" depart="1892.0" departLane="random" departSpeed="10" />
    <vehicle id="W_E_167" type="standard_car" route="W_E" depart="1904.0" departLane="random" departSpeed="10" />
    <vehicle id="E_W_168" type="standard_car" route="E_W" depart="1917.0" departLane="random" departSpeed="10" />
    <vehicle id="W_E_169" type="standard_car" route="W_E" depart="1917.0" departLane="random" departSpeed="10" />
    <vehicle id="W_E_170" type="standard_car" route="W_E" depart="1917.0" departLane="random" departSpeed="10" />
    <vehicle id="N_S_171" type="standard_car" route="N_S" depart="1917.0" departLane="random" departSpeed="10" />
    <vehicle id="W_E_172" type="standard_car" route="W_E" depart="1917.0" departLane="random" departSpeed="10" />
    <vehicle id="N_S_173" type="standard_car" route="N_S" depart="1929.0" departLane="random" departSpeed="10" />
    <vehicle id="S_W_174" type="standard_car" route="S_W" depart="1929.0" departLane="random" departSpeed="10" />
    <vehicle id="E_W_175" type="standard_car" route="E_W" depart="1929.0" departLane="random" departSpeed="10" />
    <vehicle id="S_W_176" type="standard_car" route="S_W" depart="1941.0" departLane="random" departSpeed="10" />
    <vehicle id="E_W_177" type="standard_car" route="E_W" depart="1941.0" departLane="random" departSpeed="10" />
    <vehicle id="N_S_178" type="standard_car" route="N_S" depart="1941.0" departLane="random" departSpeed="10" />
    <vehicle id="N_S_179" type="standard_car" route="N_S" depart="1941.0" departLane="random" departSpeed="10" />
    <vehicle id="W_E_180" type="standard_car" route="W_E" depart="1953.0" departLane="random" departSpeed="10" />
    <vehicle id="E_N_181" type="standard_car" route="E_N" depart="1965.0" departLane="random" departSpeed="10" />
    <vehicle id="S_N_182" type="standard_car" route="S_N" depart="1965.0" departLane="random" departSpeed="10" />
    <vehicle id="N_E_183" type="standard_car" route="N_E" depart="1965.0" departLane="random" departSpeed="10" />
    <vehicle id="S_W_184" type="standard_car" route="S_W" depart="1977.0" departLane="random" departSpeed="10" />
    <vehicle id="N_S_185" type="standard_car" route="N_S" depart="1977.0" departLane="random" departSpeed="10" />
    <vehicle id="W_S_186" type="standard_car" route="W_S" depart="1977.0" departLane="random" departSpeed="10" />
    <vehicle id="S_E_187" type="standard_car" route="S_E" depart="1977.0" departLane="random" departSpeed="10" />
    <vehicle id="W_E_188" type="standard_car" route="W_E" depart="1989.0" departLane="random" departSpeed="10" />
    <vehicle id="E_S_189" type="standard_car" route="E_S" depart="1989.0" departLane="random" departSpeed="10" />
    <vehicle id="S_N_190" type="standard_car" route="S_N" depart="1989.0" departLane="random" departSpeed="10" />
    <vehicle id="E_W_191" type="standard_car" route="E_W" depart="1989.0" departLane="random" departSpeed="10" />
    <vehicle id="S_W_192" type="standard_car" route="S_W" depart="2001.0" departLane="random" departSpeed="10" />
    <vehicle id="E_W_193" type="standard_car" route="E_W" depart="2001.0" departLane="random" departSpeed="10" />
    <vehicle id="E_W_194" type="standard_car" route="E_W" depart="2013.0" departLane="random" departSpeed="10" />
    <vehicle id="W_S_195" type="standard_car" route="W_S" depart="2013.0" departLane="random" departSpeed="10" />
    <vehicle id="E_W_196" type="standard_car" route="E_W" depart="2013.0" departLane="random" departSpeed="10" />
    <vehicle id="E_S_197" type="standard_car" route="E_S" depart="2013.0" departLane="random" departSpeed="10" />
    <vehicle id="W_N_198" type="standard_car" route="W_N" depart="2025.0" departLane="random" departSpeed="10" />
    <vehicle id="N_S_199" type="standard_car" route="N_S" depart="2025.0" departLane="random" departSpeed="10" />
    <vehicle id="N_S_200" type="standard_car" route="N_S" depart="2025.0" departLane="random" departSpeed="10" />
    <vehicle id="N_S_201" type="standard_car" route="N_S" depart="2025.0" departLane="random" departSpeed="10" />
    <vehicle id="N_S_202" type="standard_car" route="N_S" depart="2025.0" departLane="random" departSpeed="10" />
    <vehicle id="W_E_203" type="standard_car" route="W_E" depart="2037.0" departLane="random" departSpeed="10" />
    <vehicle id="N_S_204" type="standard_car" route="N_S" depart="2037.0" departLane="random" departSpeed="10" />
    <vehicle id="N_S_205" type="standard_car" route="N_S" depart="2049.0" departLane="random" departSpeed="10" />
    <vehicle id="E_W_206" type="standard_car" route="E_W" depart="2061.0" departLane="random" departSpeed="10" />
    <vehicle id="S_W_207" type="standard_car" route="S_W" depart="2061.0" departLane="random" departSpeed="10" />
    <vehicle id="E_N_208" type="standard_car" route="E_N" depart="2061.0" departLane="random" departSpeed="10" />
    <vehicle id="S_N_209" type="standard_car" route="S_N" depart="2073.0" departLane="random" departSpeed="10" />
    <vehicle id="S_E_210" type="standard_car" route="S_E" depart="2073.0" departLane="random" departSpeed="10" />
    <vehicle id="W_E_211" type="standard_car" route="W_E" depart="2073.0" departLane="random" departSpeed="10" />
    <vehicle id="S_N_212" type="standard_car" route="S_N" depart="2073.0" departLane="random" departSpeed="10" />
    <vehicle id="E_W_213" type="standard_car" route="E_W" depart="2085.0" departLane="random" departSpeed="10" />
    <vehicle id="N_S_214" type="standard_car" route="N_S" depart="2085.0" departLane="random" departSpeed="10" />
    <vehicle id="S_N_215" type="standard_car" route="S_N" depart="2085.0" departLane="random" departSpeed="10" />
    <vehicle id="W_E_216" type="standard_car" route="W_E" depart="2085.0" departLane="random" departSpeed="10" />
    <vehicle id="S_N_217" type="standard_car" route="S_N" depart="2085.0" departLane="random" departSpeed="10" />
    <vehicle id="S_E_218" type="standard_car" route="S_E" depart="2097.0" departLane="random" departSpeed="10" />
    <vehicle id="N_S_219" type="standard_car" route="N_S" depart="2097.0" departLane="random" departSpeed="10" />
    <vehicle id="W_E_220" type="standard_car" route="W_E" depart="2097.0" departLane="random" departSpeed="10" />
    <vehicle id="W_E_221" type="standard_car" route="W_E" depart="2097.0" departLane="random" departSpeed="10" />
    <vehicle id="S_N_222" type="standard_car" route="S_N" depart="2109.0" departLane="random" departSpeed="10" />
    <vehicle id="N_E_223" type="standard_car" route="N_E" depart="2109.0" departLane="random" departSpeed="10" />
    <vehicle id="S_N_224" type="standard_car" route="S_N" depart="2109.0" departLane="random" departSpeed="10" />
    <vehicle id="E_W_225" type="standard_car" route="E_W" depart="2109.0" departLane="random" departSpeed="10" />
    <vehicle id="N_S_226" type="standard_car" route="N_S" depart="2121.0" departLane="random" departSpeed="10" />
    <vehicle id="N_S_227" type="standard_car" route="N_S" depart="2133.0" departLane="random" departSpeed="10" />
    <vehicle id="E_N_228" type="standard_car" route="E_N" depart="2133.0" departLane="random" departSpeed="10" />
    <vehicle id="S_N_229" type="standard_car" route="S_N" depart="2133.0" departLane="random" departSpeed="10" />
    <vehicle id="S_N_230" type="standard_car" route="S_N" depart="2133.0" departLane="random" departSpeed="10" />
    <vehicle id="E_S_231" type="standard_car" route="E_S" depart="2133.0" departLane="random" departSpeed="10" />
    <vehicle id="S_W_232" type="standard_car" route="S_W" depart="2146.0" departLane="random" departSpeed="10" />
    <vehicle id="N_S_233" type="standard_car" route="N_S" depart="2158.0" departLane="random" departSpeed="10" />
    <vehicle id="E_W_234" type="standard_car" route="E_W" depart="2158.0" departLane="random" departSpeed="10" />
    <vehicle id="S_N_235" type="standard_car" route="S_N" depart="2158.0" departLane="random" departSpeed="10" />
    <vehicle id="E_N_236" type="standard_car" route="E_N" depart="2158.0" departLane="random" departSpeed="10" />
    <vehicle id="N_S_237" type="standard_car" route="N_S" depart="2158.0" departLane="random" departSpeed="10" />
    <vehicle id="S_E_238" type="standard_car" route="S_E" depart="2158.0" departLane="random" departSpeed="10" />
    <vehicle id="W_E_239" type="standard_car" route="W_E" depart="2170.0" departLane="random" departSpeed="10" />
    <vehicle id="E_W_240" type="standard_car" route="E_W" depart="2170.0" departLane="random" departSpeed="10" />
    <vehicle id="S_N_241" type="standard_car" route="S_N" depart="2182.0" departLane="random" departSpeed="10" />
    <vehicle id="S_N_242" type="standard_car" route="S_N" depart="2182.0" departLane="random" departSpeed="10" />
    <vehicle id="S_N_243" type="standard_car" route="S_N" depart="2194.0" departLane="random" departSpeed="10" />
    <vehicle id="N_W_244" type="standard_car" route="N_W" depart="2194.0" departLane="random" departSpeed="10" />
    <vehicle id="E_W_245" type="standard_car" route="E_W" depart="2194.0" departLane="random" departSpeed="10" />
    <vehicle id="E_W_246" type="standard_car" route="E_W" depart="2194.0" departLane="random" departSpeed="10" />
    <vehicle id="E_W_247" type="standard_car" route="E_W" depart="2206.0" departLane="random" departSpeed="10" />
    <vehicle id="S_E_248" type="standard_car" route="S_E" depart="2206.0" departLane="random" departSpeed="10" />
    <vehicle id="S_E_249" type="standard_car" route="S_E" depart="2206.0" departLane="random" departSpeed="10" />
    <vehicle id="S_N_250" type="standard_car" route="S_N" depart="2218.0" departLane="random" departSpeed="10" />
    <vehicle id="N_E_251" type="standard_car" route="N_E" depart="2218.0" departLane="random" departSpeed="10" />
    <vehicle id="W_N_252" type="standard_car" route="W_N" depart="2218.0" departLane="random" departSpeed="10" />
    <vehicle id="S_E_253" type="standard_car" route="S_E" depart="2230.0" departLane="random" departSpeed="10" />
    <vehicle id="W_E_254" type="standard_car" route="W_E" depart="2230.0" departLane="random" departSpeed="10" />
    <vehicle id="E_W_255" type="standard_car" route="E_W" depart="2230.0" departLane="random" departSpeed="10" />
    <vehicle id="N_S_256" type="standard_car" route="N_S" depart="2242.0" departLane="random" departSpeed="10" />
    <vehicle id="S_N_257" type="standard_car" route="S_N" depart="2242.0" departLane="random" departSpeed="10" />